data_crystal
 
_cell_length_a    8.83100
_cell_length_b    11.91800
_cell_length_c    14.76300
_cell_angle_alpha 90.00600
_cell_angle_beta  89.89100
_cell_angle_gamma 89.95500
 
_symmetry_space_group_name_Hall 'P 1'
_symmetry_space_group_name_H-M  'P 1'
 
loop_
_symmetry_equiv_pos_as_xyz
 'x,y,z' 
 
loop_
_atom_site_label
_atom_site_type_symbol
_atom_site_fract_x
_atom_site_fract_y
_atom_site_fract_z
_atom_site_charge
O          O       0.75066   0.26236   0.29531  -0.5240050000
O          O       0.74912   0.73767   0.79527  -0.5245400000
O          O       0.24283   0.75976   0.20462  -0.5243410000
O          O       0.25055   0.23997   0.70474  -0.5242060000
C          C       0.68187   0.17967   0.33132   0.5452560000
C          C       0.81776   0.82039   0.83122   0.5464470000
C          C       0.31305   0.67733   0.16890   0.5449810000
C          C       0.18153   0.32258   0.66874   0.5458360000
N          N       0.61945   0.50338   0.77445  -0.2224890000
N          N       0.87943   0.49661   0.27422  -0.2237370000
N          N       0.37927   0.00431   0.72689  -0.2218100000
N          N       0.11996   0.99638   0.22641  -0.2198400000
C          C       0.60139   0.39206   0.78806   0.0884000000
C          C       0.89724   0.60791   0.28791   0.0898440000
C          C       0.39724   0.89293   0.71320   0.0893110000
C          C       0.10222   0.10773   0.21260   0.0891460000
H          H       0.60496   0.36484   0.85833   0.0987130000
H          H       0.89402   0.63501   0.35823   0.0971890000
H          H       0.39311   0.86573   0.64292   0.0980710000
H          H       0.10645   0.13475   0.14227   0.0975050000
C          C       0.61916   0.54143   0.68830   0.0920930000
C          C       0.87894   0.45868   0.18803   0.0925270000
C          C       0.38022   0.04194   0.81317   0.0920700000
C          C       0.11905   0.95884   0.31271   0.0907560000
H          H       0.63794   0.63103   0.67999   0.0999820000
H          H       0.86026   0.36907   0.17973   0.1001400000
H          H       0.36169   0.13156   0.82180   0.0990250000
H          H       0.13739   0.86922   0.32133   0.0999340000
C          C       0.62274   0.19423   0.42401  -0.0183450000
C          C       0.87632   0.80591   0.92389  -0.0196220000
C          C       0.37515   0.69300   0.07688  -0.0182330000
C          C       0.12199   0.30750   0.57631  -0.0190330000
C          C       0.60176   0.47107   0.61394  -0.1597340000
C          C       0.89560   0.52918   0.11368  -0.1612660000
C          C       0.39807   0.97133   0.88743  -0.1607500000
C          C       0.10140   0.02960   0.38692  -0.1597700000
H          H       0.60505   0.50563   0.54594   0.1270730000
H          H       0.89182   0.49473   0.04564   0.1272670000
H          H       0.39510   0.00593   0.95543   0.1272100000
H          H       0.10437   0.99519   0.45497   0.1274120000
Zn         Zn      0.29747   0.10493   0.61663   0.7713820000
Zn         Zn      0.20136   0.89541   0.11650   0.7706740000
Zn         Zn      0.70136   0.60327   0.88380   0.7729480000
Zn         Zn      0.79791   0.39684   0.38373   0.7728790000
O          O       0.36458   0.97686   0.51340  -0.4988470000
O          O       0.13456   0.02309   0.01328  -0.4997740000
O          O       0.63027   0.47417   0.98622  -0.5021910000
O          O       0.86483   0.52559   0.48673  -0.4992310000
N          N       0.49893   0.17786   0.55645  -0.3707650000
N          N      -0.00073   0.82229   0.05639  -0.3705340000
N          N       0.49997   0.67724   0.94460  -0.3690460000
N          N      -0.00134   0.32347   0.44397  -0.3693270000
O          O       0.49178   0.96495   0.38176  -0.4579070000
O          O       0.00813   0.03502   0.88164  -0.4583120000
O          O       0.50657   0.46296   0.11877  -0.4565670000
O          O       0.99189   0.53749   0.61808  -0.4581810000
H          H       0.56901   0.01719   0.34041   0.3353310000
H          H       0.93103   0.98289   0.84036   0.3356690000
H          H       0.42839   0.51420   0.15957   0.3351420000
H          H       0.06897   0.48534   0.65940   0.3360970000
C          C       0.58556   0.35527   0.62782   0.0678570000
C          C       0.91204   0.64493   0.12768   0.0687210000
C          C       0.41408   0.85546   0.87350   0.0695010000
C          C       0.08535   0.14542   0.37285   0.0683830000
C          C       0.96429  -0.00066   0.62153   0.5206480000
C          C       0.53548   0.00080   0.12148   0.5211290000
C          C       0.03566   0.50028   0.87892   0.5235840000
C          C       0.46347   0.49980   0.37885   0.5209880000
C          C       0.57662   0.27635   0.55229   0.2869690000
C          C       0.92139   0.72390   0.05223   0.2846260000
C          C       0.42284   0.77605   0.94896   0.2857930000
C          C       0.07610   0.22476   0.44829   0.2848010000
O          O       0.65950   0.08598   0.29111  -0.4978660000
O          O       0.84047   0.91406   0.79103  -0.4987340000
O          O       0.33363   0.58308   0.20851  -0.5000910000
O          O       0.15957   0.41654   0.70872  -0.4980560000
C          C       0.52718   0.12564   0.47559  -0.0397710000
C          C       0.97168   0.87444   0.97548  -0.0397040000
C          C       0.47081   0.62446   0.02521  -0.0408420000
C          C       0.02672   0.37609   0.52464  -0.0395440000
C          C       0.45630   0.01729   0.45682   0.5443270000
C          C       0.04303   0.98267   0.95672   0.5459810000
C          C       0.54056   0.51547   0.04346   0.5497430000
C          C       0.95624   0.48490   0.54323   0.5447010000
C          C       0.58342   0.31626   0.71760  -0.1502590000
C          C       0.91454   0.68384   0.21747  -0.1489370000
C          C       0.41565   0.81687   0.78354  -0.1514470000
C          C       0.08387   0.18391   0.28289  -0.1505640000
H          H       0.57153   0.22722   0.73173   0.1215440000
H          H       0.92648   0.77285   0.23161   0.1217080000
H          H       0.42738   0.72788   0.76910   0.1215780000
H          H       0.07218   0.27288   0.26839   0.1211240000
N          N       0.65250   0.28937   0.47240  -0.3513760000
N          N       0.84605   0.71085   0.97230  -0.3507890000
N          N       0.34640   0.78864   0.02884  -0.3499990000
N          N       0.15167   0.21200   0.52819  -0.3502950000
N          N       0.88998   0.91061   0.58578  -0.0232020000
N          N       0.60999   0.08970   0.08600  -0.0232860000
N          N       0.10848   0.41055   0.91417  -0.0241100000
N          N       0.39040   0.58958   0.41406  -0.0220290000
C          C       0.87609   0.10280   0.64758  -0.5168190000
C          C       0.62346   0.89717   0.14715  -0.5161120000
C          C       0.12521   0.60332   0.85383  -0.5159890000
C          C       0.37408   0.39671   0.35388  -0.5162540000
H          H       0.95161   0.15866   0.68501   0.1624380000
H          H       0.54766   0.84111   0.18436   0.1619180000
H          H       0.05094   0.65972   0.81595   0.1628710000
H          H       0.44854   0.34032   0.31595   0.1627290000
H          H       0.77925   0.08141   0.69066   0.1622010000
H          H       0.72007   0.91824   0.19028   0.1623250000
H          H       0.22290   0.58167   0.81151   0.1623530000
H          H       0.27649   0.41826   0.31167   0.1624970000
H          H       0.83423   0.14683   0.58721   0.1566160000
H          H       0.66561   0.85343   0.08661   0.1564910000
H          H       0.16587   0.64690   0.91470   0.1561020000
H          H       0.33330   0.35317   0.41482   0.1564310000
C          C       0.72557   0.89962   0.58571  -0.2867180000
C          C       0.77440   0.10061   0.08575  -0.2860600000
C          C       0.27275   0.39836   0.91481  -0.2871150000
C          C       0.22610   0.60171   0.41517  -0.2873830000
H          H       0.69003   0.84587   0.64239   0.1199070000
H          H       0.80981   0.15443   0.14235   0.1192650000
H          H       0.30833   0.34487   0.85794   0.1201630000
H          H       0.19045   0.65577   0.35877   0.1205010000
H          H       0.68942   0.86231   0.52137   0.1198530000
H          H       0.81083   0.13779   0.02133   0.1190140000
H          H       0.30782   0.36022   0.97906   0.1203020000
H          H       0.19106   0.63910   0.47980   0.1200450000
H          H       0.67110   0.98131   0.59276   0.1215320000
H          H       0.82875   0.01891   0.09285   0.1216660000
H          H       0.32813   0.47971   0.90845   0.1214620000
H          H       0.17078   0.52040   0.40830   0.1215870000
C          C       0.97263   0.80665   0.56760  -0.2844590000
C          C       0.52748   0.19382   0.06840  -0.2842910000
C          C       0.02441   0.30708   0.93155  -0.2823220000
C          C       0.47439   0.69300   0.43163  -0.2828600000
H          H       0.09225   0.82598   0.55625   0.1298720000
H          H       0.40796   0.17460   0.05697   0.1297740000
H          H       0.90482   0.32720   0.94216   0.1295810000
H          H       0.59387   0.67285   0.44227   0.1297670000
H          H       0.92419   0.76587   0.50771   0.1178200000
H          H       0.57627   0.23515   0.00876   0.1181400000
H          H       0.07132   0.26576   0.99166   0.1181380000
H          H       0.42701   0.73420   0.49177   0.1183970000
H          H       0.96194   0.74830   0.62483   0.1349220000
H          H       0.53777   0.25166   0.12598   0.1342550000
H          H       0.03558   0.24886   0.87422   0.1341420000
H          H       0.46369   0.75139   0.37442   0.1334480000
O          O       0.10615   0.99431   0.63124  -0.5235510000
O          O       0.39363   0.00573   0.13127  -0.5249300000
O          O       0.89383   0.49653   0.86877  -0.5255740000
O          O       0.60533   0.50353   0.36867  -0.5247980000
