data_crystal

_cell_length_a    7.67000
_cell_length_b    21.52600
_cell_length_c    21.58600
_cell_angle_alpha 90.77000
_cell_angle_beta  89.72000
_cell_angle_gamma 90.24300

_symmetry_space_group_name_Hall 'P 1'
_symmetry_space_group_name_H-M  'P 1'

loop_
_symmetry_equiv_pos_as_xyz
 'x,y,z'

loop_
_atom_site_label
_atom_site_type_symbol
_atom_site_fract_x
_atom_site_fract_y
_atom_site_fract_z
_atom_site_charge
Al         Al      0.00771   0.32423   0.00144   1.5424230000
Al         Al      0.98632   0.65820  -0.00080   1.5524630000
Al         Al      0.50407   0.18256   0.00047   1.5560800000
Al         Al      0.48784   0.84809   0.00224   1.5452400000
Al         Al      0.25917   0.25626   0.09678   1.5631040000
Al         Al      0.73311   0.75121   0.93190   1.5446300000
Al         Al      0.75853   0.25145   0.90548   1.5551890000
Al         Al      0.22763   0.75564   0.06981   1.5429330000
Al         Al      0.50632   0.84356   0.50165   1.5458060000
Al         Al      0.49911   0.17954   0.49963   1.5510450000
Al         Al      0.00041   0.65496   0.50082   1.5434910000
Al         Al     -0.00077   0.31939   0.50093   1.5522550000
Al         Al      0.75376   0.75111   0.57044   1.5334320000
Al         Al      0.24292   0.24684   0.40527   1.5495690000
Al         Al      0.25916   0.74685   0.43296   1.5462690000
Al         Al      0.74815   0.25098   0.59604   1.5515970000
O          O       0.15544   0.25339   0.01880  -0.5408770000
O          O       0.87895   0.73479   0.00298  -0.5352120000
O          O       0.65605   0.25329   0.98379  -0.5423560000
O          O       0.37954   0.77170  -0.00008  -0.5394670000
O          O       0.35815   0.25401   0.01853  -0.5473180000
O          O       0.58211   0.76903   0.00304  -0.5333530000
O          O       0.85874   0.25296   0.98393  -0.5409870000
O          O       0.08089   0.73758  -0.00013  -0.5416080000
O          O       0.60838   0.76587   0.49992  -0.5349530000
O          O       0.34899   0.24973   0.48188  -0.5449840000
O          O       0.10790   0.73155   0.50320  -0.5361260000
O          O       0.84891   0.24970   0.51856  -0.5506260000
O          O       0.90592   0.73400   0.49992  -0.5311580000
O          O       0.14610   0.24701   0.48393  -0.5377010000
O          O       0.40662   0.76544   0.50359  -0.5348420000
O          O       0.64617   0.25229   0.51841  -0.5333660000
O          O       0.17043   0.38693   0.02478  -0.5993430000
O          O       0.80733   0.60632   0.98439  -0.6139890000
O          O       0.66592   0.12146   0.97515  -0.5848020000
O          O       0.31647   0.90287   0.01862  -0.6100300000
O          O       0.44119   0.23753   0.14704  -0.5924420000
O          O       0.57259   0.77470   0.87131  -0.5700820000
O          O       0.94013   0.27121   0.85399  -0.5830540000
O          O       0.33726   0.12235   0.02490  -0.5819100000
O          O       0.66626   0.90025   0.98755  -0.6188120000
O          O       0.85167   0.38674   0.97503  -0.5910900000
O          O       0.15984   0.60639   0.01830  -0.5965940000
O          O       0.89389   0.72826   0.86927  -0.5826200000
O          O       0.57880   0.23145   0.85332  -0.5919380000
O          O       0.38121   0.77872   0.13423  -0.5846960000
O          O       0.68342   0.89672   0.51533  -0.6076230000
O          O       0.33470   0.11623   0.47574  -0.5707580000
O          O       0.17487   0.60032   0.48752  -0.6117340000
O          O       0.83408   0.38162   0.52413  -0.5670230000
O          O       0.90853   0.73143   0.63389  -0.6005310000
O          O       0.42590   0.76597   0.37173  -0.5924520000
O          O       0.56831   0.23450   0.64692  -0.6105380000
O          O       0.82087   0.60328   0.51527  -0.6098280000
O          O       0.16939   0.37860   0.47800  -0.5738780000
O          O       0.32611   0.89425   0.48777  -0.6161260000
O          O       0.66826   0.11902   0.52195  -0.5703760000
O          O       0.59330   0.77220   0.63382  -0.5960890000
O          O       0.41853   0.22800   0.35290  -0.6114610000
O          O       0.92622   0.26864   0.64753  -0.6081520000
O          O       0.33390   0.34340   0.09989  -0.5658960000
O          O       0.63286   0.66572   0.92534  -0.5630410000
O          O       0.83362   0.16526   0.90061  -0.5702380000
O          O       0.13429   0.84252   0.07516  -0.5786400000
O          O       0.60975   0.17805   0.08388  -0.5568770000
O          O       0.42506   0.85620   0.91280  -0.5883020000
O          O       0.11663   0.32868   0.91621  -0.5731000000
O          O       0.18349   0.16951   0.10247  -0.5719620000
O          O       0.83388   0.83708   0.92781  -0.5650830000
O          O       0.68442   0.33777   0.90254  -0.5720190000
O          O       0.32450   0.67132   0.07770  -0.5735810000
O          O       0.05766   0.65307   0.91278  -0.5687310000
O          O       0.39823   0.17786   0.91654  -0.5575000000
O          O       0.54907   0.85364   0.09080  -0.5870640000
O          O       0.84902   0.83731   0.57780  -0.5790940000
O          O       0.17365   0.15908   0.39962  -0.5938890000
O          O       0.35078   0.66081   0.42857  -0.5788510000
O          O       0.68232   0.33977   0.60361  -0.5910650000
O          O       0.05205   0.64967   0.59088  -0.5915250000
O          O       0.56604   0.84985   0.41222  -0.5872000000
O          O       0.39920   0.17501   0.58383  -0.5687170000
O          O       0.65803   0.66540   0.57803  -0.5764400000
O          O       0.31647   0.33479   0.39731  -0.5871830000
O          O       0.16528   0.83147   0.42525  -0.5656200000
O          O       0.81629   0.16275   0.60244  -0.5888640000
O          O       0.44944   0.85262   0.59112  -0.5908800000
O          O       0.59956   0.17506   0.41588  -0.5690030000
O          O       0.09986   0.32505   0.58417  -0.5685280000
C          C       0.56836   0.45076   0.08615  -0.1851530000
C          C       0.41508   0.54925   0.91606  -0.1886240000
C          C       0.06870   0.05937   0.91736  -0.1870760000
C          C       0.92031   0.95515   0.08666  -0.2341420000
C          C       0.84306   0.16816   0.19540  -0.1796400000
C          C       0.18997   0.83209   0.80533  -0.1943500000
C          C       0.34513   0.34040   0.80305  -0.1810910000
C          C       0.92879   0.06805   0.08378  -0.1838890000
C          C       0.06216   0.94643   0.91608  -0.2319670000
C          C       0.43845   0.43670   0.91917  -0.2280270000
C          C       0.55722   0.56364   0.08872  -0.2299120000
C          C       0.29209   0.67109   0.80726  -0.1855030000
C          C       0.16784   0.16189   0.80619  -0.1757870000
C          C       0.78115   0.83419   0.19152  -0.2312320000
C          C       0.07117   0.94868   0.58742  -0.2272520000
C          C       0.93703   0.05335   0.41244  -0.1864910000
C          C       0.56920   0.55083   0.41632  -0.2257310000
C          C       0.43203   0.44186   0.58383  -0.1886170000
C          C       0.28828   0.67065   0.69478  -0.2466790000
C          C       0.80003   0.82871   0.30342  -0.2045720000
C          C       0.16993   0.16173   0.69349  -0.2264030000
C          C       0.43259   0.55470   0.58837  -0.2291680000
C          C       0.56968   0.43801   0.41753  -0.1863510000
C          C       0.94028   0.94055   0.41157  -0.2227740000
C          C       0.07054   0.06138   0.58225  -0.1903520000
C          C       0.20500   0.83163   0.69292  -0.2453210000
C          C       0.82879   0.16304   0.30780  -0.2272730000
C          C       0.33204   0.33950   0.69054  -0.2230200000
C          C       0.38890   0.44854   0.07365  -0.0220150000
C          C       0.59289   0.55371   0.92981  -0.0377330000
C          C       0.88836   0.06043   0.92843  -0.0178130000
C          C       0.09802   0.95382   0.07261  -0.0389230000
C          C       0.66515   0.18263   0.19399  -0.0299080000
C          C       0.37145   0.82567   0.80749  -0.0205810000
C          C       0.16876   0.32300   0.80544  -0.0410250000
C          C       0.10912   0.06617   0.07325  -0.0166600000
C          C       0.88480   0.94795   0.93066  -0.0344310000
C          C       0.61793   0.44165   0.92961  -0.0158900000
C          C       0.38071   0.56091   0.07373  -0.0344850000
C          C       0.11097   0.67935   0.80781  -0.0135780000
C          C       0.34346   0.18033   0.80634  -0.0331400000
C          C       0.60064   0.82598   0.19510  -0.0165180000
C          C       0.89525   0.94804   0.57168  -0.0351160000
C          C       0.11517   0.05445   0.42726  -0.0285730000
C          C       0.39221   0.55027   0.43144  -0.0372320000
C          C       0.61268   0.44227   0.57291  -0.0242560000
C          C       0.10762   0.67833   0.69599  -0.0317050000
C          C       0.61858   0.82140   0.30654  -0.0370570000
C          C       0.34468   0.17999   0.69398  -0.0367510000
C          C       0.60963   0.55454   0.57353  -0.0374260000
C          C       0.38940   0.43806   0.42900  -0.0274680000
C          C       0.11483   0.94209   0.42930  -0.0335180000
C          C       0.89058   0.06029   0.57040  -0.0259570000
C          C       0.38603   0.82502   0.69558  -0.0264310000
C          C       0.65234   0.17822   0.30597  -0.0389290000
C          C       0.15701   0.32190   0.69335  -0.0388360000
C          C       0.29247   0.38841   0.06555   0.6454330000
C          C       0.68009   0.61325   0.94613   0.6398690000
C          C       0.79012   0.12020   0.93515   0.6419250000
C          C       0.18618   0.89533   0.05575   0.6316490000
C          C       0.56812   0.19971   0.13695   0.6384660000
C          C       0.46202   0.81876   0.86824   0.6433650000
C          C       0.07142   0.30733   0.86318   0.6320050000
C          C       0.21653   0.12387   0.06630   0.6451530000
C          C       0.79134   0.89070   0.94827   0.6364320000
C          C       0.72500   0.38453   0.93617   0.6401820000
C          C       0.28429   0.61729   0.05684   0.6355020000
C          C       0.01452   0.68715   0.86774   0.6427300000
C          C       0.44445   0.19679   0.86335   0.6360440000
C          C       0.50296   0.81966   0.13600   0.6379980000
C          C       0.80568   0.88964   0.55530   0.6352850000
C          C       0.21403   0.11414   0.43499   0.6420380000
C          C       0.30214   0.60808   0.44900   0.6362580000
C          C       0.71599   0.38371   0.56603   0.6423890000
C          C       0.01712   0.68619   0.63631   0.6449750000
C          C       0.53184   0.81215   0.36758   0.6483130000
C          C       0.44090   0.19644   0.63718   0.6410690000
C          C       0.69978   0.61215   0.55598   0.6359520000
C          C       0.28579   0.37953   0.43533   0.6431750000
C          C       0.20548   0.88491   0.44721   0.6384940000
C          C       0.78542   0.11835   0.56402   0.6418770000
C          C       0.48268   0.81683   0.63633   0.6413020000
C          C       0.55238   0.19345   0.36254   0.6398260000
C          C       0.05672   0.30510   0.63747   0.6423740000
O          O       0.82916   0.50948   0.10017  -0.4259520000
O          O       0.15994   0.48710   0.90653  -0.4289950000
O          O       0.33288   0.00278   0.90597  -0.4247470000
O          O       0.65715   0.01552   0.09410  -0.4233390000
O          O       0.10065   0.14987   0.25315  -0.4234200000
O          O       0.92844   0.83143   0.74648  -0.4239060000
O          O       0.60025   0.36223   0.74375  -0.4261460000
O          O       0.55922   0.66868   0.75014  -0.4220470000
O          O       0.90823   0.13784   0.75022  -0.4239170000
O          O       0.05942   0.83421   0.24334  -0.4319550000
O          O       0.33747   0.00710   0.59700  -0.4232890000
O          O       0.67470   0.99682   0.39388  -0.4238980000
O          O       0.83664   0.49362   0.40597  -0.4218060000
O          O       0.16523   0.49668   0.59707  -0.4220930000
C          C       0.29560   0.50345   0.06621  -0.1272150000
C          C       0.69501   0.50006   0.93632  -0.1264070000
C          C       0.79682   0.00482   0.93670  -0.1275210000
C          C       0.19307   0.00917   0.06590  -0.1290170000
C          C       0.57005   0.18747   0.24921  -0.1171190000
C          C       0.47040   0.82030   0.75280  -0.1401510000
C          C       0.07502   0.31415   0.75059  -0.1144570000
C          C       0.01782   0.68441   0.75239  -0.1408210000
C          C       0.43141   0.18894   0.75021  -0.1170090000
C          C       0.51768   0.81841   0.25254  -0.1392180000
C          C       0.80383   0.00361   0.56319  -0.1269420000
C          C       0.20341  -0.00115   0.43708  -0.1250640000
C          C       0.30110   0.49410   0.43773  -0.1263100000
C          C       0.70095   0.49856   0.56602  -0.1284400000
C          C       0.65243   0.50853   0.09269   0.3179870000
C          C       0.33713   0.49022   0.91309   0.3199250000
C          C       0.15541   0.00223   0.91204   0.3202070000
C          C       0.83464   0.01233   0.08929   0.3200720000
C          C       0.92453   0.15904   0.25266   0.3202020000
C          C       0.10649   0.83249   0.74765   0.3267190000
C          C       0.42619   0.34844   0.74522   0.3204960000
C          C       0.38113   0.66943   0.75030   0.3237030000
C          C       0.08174   0.15288   0.74946   0.3175730000
C          C       0.88162   0.83311   0.24543   0.3261590000
C          C       0.16058   0.00534   0.58996   0.3238570000
C          C       0.84983   0.99630   0.40506   0.3230340000
C          C       0.65944   0.49467   0.41215   0.3234430000
C          C       0.34236   0.49825   0.59095   0.3254370000
H          H       0.61150   0.97313   0.09353   0.3629730000
H          H       0.37267   0.95962   0.90544   0.3578310000
H          H       0.12305   0.44435   0.91421   0.3607340000
H          H       0.86757   0.55295   0.10055   0.3565420000
H          H       0.09555   0.82388   0.20090   0.3661880000
H          H       0.37876   0.96431   0.59956   0.3639640000
H          H       0.87811   0.53659   0.40459   0.3628470000
H          H       0.59850   0.67591   0.70774   0.3610590000
H          H       0.86645   0.13835   0.70752   0.3593050000
H          H       0.12363   0.53953   0.59920   0.3634030000
H          H       0.63312   0.95376   0.39321   0.3600760000
H          H       0.89285   0.82044   0.70430   0.3600470000
H          H       0.13757   0.14788   0.29639   0.3573420000
H          H       0.63831   0.36095   0.70034   0.3565950000
H          H       0.64698   0.40890   0.08706   0.1419080000
H          H       0.33307   0.59007   0.91281   0.1377540000
H          H       0.14630   0.10168   0.91688   0.1418320000
H          H       0.84545   0.91236   0.08948   0.1264860000
H          H       0.92412   0.16818   0.15412   0.1385700000
H          H       0.10998   0.83189   0.84707   0.1464440000
H          H       0.42544   0.34371   0.84416   0.1391300000
H          H       0.85662   0.11132   0.08351   0.1419900000
H          H       0.13096   0.90253   0.91365   0.1254140000
H          H       0.37457   0.39161   0.91962   0.1321700000
H          H       0.62421   0.60804   0.09169   0.1250320000
H          H       0.36688   0.67019   0.84992   0.1459900000
H          H       0.09207   0.15837   0.84851   0.1381220000
H          H       0.84568   0.83679   0.14668   0.1365280000
H          H       0.14251   0.90557   0.59192   0.1267600000
H          H       0.86103   0.09566   0.41018   0.1419220000
H          H       0.64027   0.59438   0.41356   0.1276360000
H          H       0.35605   0.39921   0.58277   0.1440600000
H          H       0.35893   0.67052   0.65100   0.1287480000
H          H       0.88116   0.82619   0.34444   0.1412150000
H          H       0.09795   0.15889   0.65051   0.1222110000
H          H       0.36130   0.59805   0.59181   0.1260050000
H          H       0.64518   0.39548   0.41680   0.1425450000
H          H       0.87106   0.89663   0.40782   0.1261090000
H          H       0.14554   0.10424   0.58171   0.1436540000
H          H       0.13858   0.83114   0.64854   0.1303370000
H          H       0.89583   0.15990   0.35166   0.1237450000
H          H       0.39961   0.34147   0.64651   0.1234650000
H          H       0.15914   0.50126   0.05338   0.1307770000
H          H       0.83220   0.50427   0.94754   0.1310990000
H          H       0.65974   0.00635   0.94918   0.1288420000
H          H       0.32981   0.00838   0.05306   0.1289950000
H          H       0.43412   0.20072   0.24780   0.1309260000
H          H       0.60970   0.81240   0.75567   0.1266860000
H          H       0.93994   0.29955   0.75275   0.1324730000
H          H       0.87889   0.69331   0.75418   0.1256800000
H          H       0.56593   0.20437   0.75069   0.1318130000
H          H       0.37831   0.81006   0.25554   0.1275550000
H          H       0.66755   0.00303   0.55004   0.1304970000
H          H       0.33867   0.00009   0.45154   0.1314420000
H          H       0.16434   0.49357   0.45070   0.1300760000
H          H       0.83791   0.49842   0.55332   0.1300630000
O          O       0.05971   0.73721   0.13145  -0.5917270000
O          O       0.10758   0.72244   0.36889  -0.5857710000
O          O       0.92336   0.65270   0.09078  -0.5758650000
O          O       0.94235   0.64701   0.41234  -0.5986090000
C          C       0.68715   0.67466   0.19975  -0.1946650000
C          C       0.70613   0.66893   0.31168  -0.2413400000
C          C       0.86868   0.68106   0.19647  -0.0238880000
C          C       0.88732   0.67581   0.30800  -0.0259270000
C          C       0.95573   0.69045   0.13517   0.6418820000
C          C       0.98597   0.68146   0.36681   0.6431350000
O          O       0.42744   0.67179   0.25996  -0.4287130000
C          C       0.96994   0.68342   0.25044  -0.1376660000
C          C       0.60552   0.67098   0.25783   0.3256920000
H          H       0.39225   0.68358   0.30211   0.3608660000
H          H       0.60584   0.67720   0.15874   0.1460410000
H          H       0.64142   0.66701   0.35649   0.1305120000
H          H       0.10952   0.69113   0.24718   0.1276700000
O          O       0.07785   0.27758   0.14708  -0.5948190000
O          O       0.06693   0.26534   0.35330  -0.6090520000
O          O       0.89912   0.33138   0.08458  -0.5567080000
O          O       0.89952   0.32456   0.41732  -0.5680970000
C          C       0.66620   0.34180   0.19647  -0.1771800000
C          C       0.66710   0.33551   0.30899  -0.2287200000
C          C       0.84365   0.32671   0.19534  -0.0364270000
C          C       0.84453   0.32131   0.30752  -0.0341350000
C          C       0.94452   0.31215   0.13764   0.6397630000
C          C       0.94085   0.30363   0.36366   0.6393890000
O          O       0.40110   0.35325   0.25338  -0.4222740000
C          C       0.93263   0.31686   0.25088  -0.1171120000
C          C       0.57770   0.34475   0.25360   0.3188170000
H          H       0.35997   0.35130   0.29631   0.3568280000
H          H       0.59103   0.34652   0.15440   0.1389470000
H          H       0.59432   0.33430   0.35207   0.1243280000
H          H       0.06843   0.30344   0.24935   0.1301350000
